Version 4
SHEET 1 1912 680
WIRE 272 256 224 256
WIRE 384 256 384 208
WIRE 384 256 272 256
WIRE 496 256 384 256
WIRE 544 256 496 256
WIRE 272 272 272 256
WIRE 496 272 496 256
WIRE 224 288 208 288
WIRE 560 288 544 288
WIRE 144 400 144 256
WIRE 208 400 208 288
WIRE 208 400 144 400
WIRE 272 400 272 368
WIRE 352 400 272 400
WIRE 496 400 496 368
WIRE 496 400 432 400
WIRE 560 400 560 288
WIRE 624 400 624 256
WIRE 624 400 560 400
WIRE 272 432 272 400
WIRE 496 432 496 400
WIRE -16 448 -32 448
WIRE 80 448 64 448
WIRE 704 448 688 448
WIRE 800 448 784 448
WIRE 208 512 208 400
WIRE 224 512 208 512
WIRE 560 512 560 400
WIRE 560 512 544 512
WIRE 384 528 272 528
WIRE 496 528 384 528
WIRE 144 560 144 496
WIRE 384 560 384 528
WIRE 384 560 144 560
WIRE 624 560 624 496
WIRE 624 560 384 560
WIRE 384 592 384 560
FLAG 384 592 0
FLAG 208 112 0
FLAG 208 32 Supply
FLAG 384 208 Supply
FLAG 304 112 0
FLAG 400 112 0
FLAG 304 32 A
FLAG 400 32 B
FLAG -32 448 A
FLAG 800 448 B
SYMBOL nmos 224 432 R0
SYMATTR InstName M1
SYMATTR Value irf540
SYMATTR Prefix X
SYMBOL pmos 224 368 M180
SYMATTR InstName M2
SYMATTR Value irf9540n
SYMATTR Prefix X
SYMBOL res 448 384 R90
WINDOW 0 0 56 VBottom 2
WINDOW 3 32 56 VTop 2
SYMATTR InstName R1
SYMATTR Value 3.5
SYMBOL nmos 544 432 M0
SYMATTR InstName M3
SYMATTR Value irf540
SYMATTR Prefix X
SYMBOL pmos 544 368 R180
SYMATTR InstName M4
SYMATTR Value irf9540n
SYMATTR Prefix X
SYMBOL voltage 208 16 R0
WINDOW 123 0 0 Left 0
WINDOW 39 0 0 Left 0
SYMATTR InstName V1
SYMATTR Value PWL(0 0 24 24)
SYMBOL voltage 304 16 R0
WINDOW 123 0 0 Left 0
WINDOW 39 0 0 Left 0
SYMATTR InstName V2
SYMATTR Value 0
SYMBOL voltage 400 16 R0
WINDOW 123 0 0 Left 0
WINDOW 39 0 0 Left 0
SYMATTR InstName V3
SYMATTR Value 5
SYMBOL res 640 240 R90
WINDOW 0 0 56 VBottom 2
WINDOW 3 32 56 VTop 2
SYMATTR InstName R2
SYMATTR Value 10k
SYMBOL res 240 240 R90
WINDOW 0 0 56 VBottom 2
WINDOW 3 32 56 VTop 2
SYMATTR InstName R3
SYMATTR Value 10k
SYMBOL npn 80 400 R0
SYMATTR InstName Q1
SYMATTR Value 2N2222
SYMBOL npn 688 400 M0
SYMATTR InstName Q2
SYMATTR Value 2N2222
SYMBOL res 80 432 R90
WINDOW 0 0 56 VBottom 2
WINDOW 3 32 56 VTop 2
SYMATTR InstName R4
SYMATTR Value 10k
SYMBOL res 800 432 R90
WINDOW 0 0 56 VBottom 2
WINDOW 3 32 56 VTop 2
SYMATTR InstName R5
SYMATTR Value 10k
TEXT -66 616 Left 2 !.tran 0 15 0
TEXT 1128 -624 Left 0 !*Feb 16, 2010\n*Doc. ID: 90183, Rev. A\n*File Name: part irf540_sihf540_PS.txt and part irf540_sihf540_PS.spi\n*This document is intended as a SPICE modeling guideline and does not\n*constitute a commercial product datasheet.  Designers should refer to the\n*appropriate data sheet of the same number for guaranteed specification\n*limits.\n.SUBCKT irf540 1 2 3\n**************************************\n*      Model Generated by MODPEX     *\n*Copyright(c) Symmetry Design Systems*\n*         All Rights Reserved        *\n*    UNPUBLISHED LICENSED SOFTWARE   *\n*   Contains Proprietary Information *\n*      Which is The Property of      *\n*     SYMMETRY OR ITS LICENSORS      *\n*Commercial Use or Resale Restricted *\n*   by Symmetry License Agreement    *\n**************************************\n* Model generated on Apr 24, 96\n* Model format: SPICE3\n* Symmetry POWER MOS Model (Version 1.0)\n* External Node Designations\n* Node 1 -> Drain\n* Node 2 -> Gate\n* Node 3 -> Source\nM1 9 7 8 8 MM L=100u W=100u\n* Default values used in MM:\n* The voltage-dependent capacitances are\n* not included. Other default values are:\n*   RS=0 RD=0 LD=0 CBD=0 CBS=0 CGBO=0\n.MODEL MM NMOS LEVEL=1 IS=1e-32\n+VTO=3.56362 LAMBDA=0.00291031 KP=25.0081\n+CGSO=1.60584e-05 CGDO=4.25919e-07\nRS 8 3 0.0317085\nD1 3 1 MD\n.MODEL MD D IS=1.02194e-10 RS=0.00968022 N=1.21527 BV=100\n+IBV=0.00025 EG=1.2 XTI=3.03885 TT=1e-07\n+CJO=1.81859e-09 VJ=1.1279 M=0.449161 FC=0.5\nRDS 3 1 4e+06\nRD 9 1 0.0135649\nRG 2 7 5.11362\nD2 4 5 MD1\n* Default values used in MD1:\n*   RS=0 EG=1.11 XTI=3.0 TT=0\n*   BV=infinite IBV=1mA\n.MODEL MD1 D IS=1e-32 N=50\n+CJO=2.49697e-09 VJ=0.5 M=0.9 FC=1e-08\nD3 0 5 MD2\n* Default values used in MD2:\n*   EG=1.11 XTI=3.0 TT=0 CJO=0\n*   BV=infinite IBV=1mA\n.MODEL MD2 D IS=1e-10 N=0.4 RS=3e-06\nRL 5 10 1\nFI2 7 9 VFI2 -1\nVFI2 4 0 0\nEV16 10 0 9 7 1\nCAP 11 10 2.49697e-09\nFI1 7 9 VFI1 -1\nVFI1 11 6 0\nRCAP 6 10 1\nD4 0 6 MD3\n* Default values used in MD3:\n*   EG=1.11 XTI=3.0 TT=0 CJO=0\n*   RS=0 BV=infinite IBV=1mA\n.MODEL MD3 D IS=1e-10 N=0.4\n.ENDS
TEXT 1520 -616 Left 0 !*Mar 22, 2010\n*Doc. ID: 90304, Rev. A\n*File Name: part irf9540n_sihf9540n_PS.txt and part irf9540n_sihf9540n_PS.spi\n*This document is intended as a SPICE modeling guideline and does not\n*constitute a commercial product datasheet. Designers should refer to the\n*appropriate data sheet of the same number for guaranteed specification\n*limits.\n.SUBCKT irf9540n 1 2 3\n**************************************\n*      Model Generated by MODPEX     *\n*Copyright(c) Symmetry Design Systems*\n*         All Rights Reserved        *\n*    UNPUBLISHED LICENSED SOFTWARE   *\n*   Contains Proprietary Information *\n*      Which is The Property of      *\n*     SYMMETRY OR ITS LICENSORS      *\n*Commercial Use or Resale Restricted *\n*   by Symmetry License Agreement    *\n**************************************\n* Model generated on Nov 20, 97\n* MODEL FORMAT: SPICE3\n* Symmetry POWER MOS Model (Version 1.0)\n* External Node Designations\n* Node 1 -> Drain\n* Node 2 -> Gate\n* Node 3 -> Source\nM1 9 7 8 8 MM L=100u W=100u\n* Default values used in MM:\n* The voltage-dependent capacitances are\n* not included. Other default values are:\n*   RS=0 RD=0 LD=0 CBD=0 CBS=0 CGBO=0\n.MODEL MM PMOS LEVEL=1 IS=1e-32\n+VTO=-3.76841 LAMBDA=0 KP=7.07146\n+CGSO=1.11762e-05 CGDO=1e-11\nRS 8 3 0.0425484\nD1 1 3 MD\n.MODEL MD D IS=9.2473e-11 RS=0.00815502 N=1.22578 BV=100\n+IBV=-0.00025 EG=1.2 XTI=4 TT=6.92199e-07\n+CJO=7.99077e-10 VJ=1.46806 M=0.554057 FC=0.499996\nRDS 3 1 1e+06\nRD 9 1 0.0462318\nRG 2 7 7.07132\nD2 5 4 MD1\n* Default values used in MD1:\n*   RS=0 EG=1.11 XTI=3.0 TT=0\n*   BV=infinite IBV=1mA\n.MODEL MD1 D IS=1e-32 N=50\n+CJO=2.43656e-09 VJ=1.23601 M=0.748171 FC=1e-08\nD3 5 0 MD2\n* Default values used in MD2:\n*   EG=1.11 XTI=3.0 TT=0 CJO=0\n*   BV=infinite IBV=1mA\n.MODEL MD2 D IS=1e-10 N=0.4 RS=3e-06\nRL 5 10 1\nFI2 7 9 VFI2 -1\nVFI2 4 0 0\nEV16 10 0 9 7 1\nCAP 11 10 3.41908e-09\nFI1 7 9 VFI1 -1\nVFI1 11 6 0\nRCAP 6 10 1\nD4 6 0 MD3\n* Default values used in MD3:\n*   EG=1.11 XTI=3.0 TT=0 CJO=0\n*   RS=0 BV=infinite IBV=1mA\n.MODEL MD3 D IS=1e-10 N=0.4\n.ENDS irf9540n
